Version 4
SHEET 1 1216 692
WIRE 128 0 64 0
WIRE 240 0 192 0
WIRE 336 0 240 0
WIRE 592 0 336 0
WIRE 864 0 592 0
WIRE 1088 0 864 0
WIRE 336 16 336 0
WIRE 592 16 592 0
WIRE 864 80 864 0
WIRE 1088 112 1088 0
WIRE 336 128 336 96
WIRE 592 128 592 96
WIRE 656 128 592 128
WIRE 800 128 736 128
WIRE 336 240 336 208
WIRE 64 272 64 0
WIRE 240 272 240 0
WIRE 336 368 336 320
WIRE 432 368 336 368
WIRE 704 368 496 368
WIRE 864 368 864 176
WIRE 864 368 784 368
WIRE 944 368 864 368
WIRE 1088 368 1088 192
WIRE 1088 368 1008 368
WIRE 1088 400 1088 368
WIRE 592 432 592 128
WIRE 864 448 864 368
WIRE 336 480 336 368
WIRE 528 480 336 480
WIRE 1088 512 1088 480
WIRE 64 624 64 352
WIRE 240 624 240 336
WIRE 240 624 64 624
WIRE 592 624 592 528
WIRE 592 624 240 624
WIRE 864 624 864 528
WIRE 864 624 592 624
WIRE 1088 624 1088 576
WIRE 1088 624 864 624
WIRE 64 640 64 624
FLAG 64 640 0
SYMBOL Misc\\UQuelle_EU 64 256 R0
WINDOW 123 0 0 Left 0
WINDOW 39 0 0 Left 0
SYMATTR InstName V1
SYMATTR Value 2V2
SYMBOL Resistor 320 0 R0
SYMATTR InstName R1
SYMATTR Value 10Meg
SYMBOL Resistor 320 112 R0
SYMATTR InstName R2
SYMATTR Value 10Meg
SYMBOL Resistor 320 224 R0
SYMATTR InstName R3
SYMATTR Value 4Meg7
SYMBOL EuropeanPolcap 224 272 R0
SYMATTR InstName C1
SYMATTR Value 1F
SYMBOL cap 496 352 R90
WINDOW 0 0 32 VBottom 2
WINDOW 3 32 32 VTop 2
SYMATTR InstName C2
SYMATTR Value 100n
SYMBOL Resistor 576 0 R0
SYMATTR InstName R4
SYMATTR Value 33k
SYMBOL Resistor 752 112 R90
WINDOW 0 5 56 VBottom 2
WINDOW 3 27 56 VTop 2
SYMATTR InstName R5
SYMATTR Value 1k
SYMBOL npn 528 432 R0
SYMATTR InstName Q1
SYMATTR Value BC547C
SYMBOL pnp 800 176 M180
SYMATTR InstName Q2
SYMATTR Value BC557C
SYMBOL Resistor 800 352 R90
WINDOW 0 5 56 VBottom 2
WINDOW 3 27 56 VTop 2
SYMATTR InstName R6
SYMATTR Value 1k
SYMBOL EuropeanPolcap 1008 352 R90
WINDOW 0 0 32 VBottom 2
WINDOW 3 32 32 VTop 2
SYMATTR InstName C3
SYMATTR Value 10µ
SYMBOL Resistor 1072 96 R0
SYMATTR InstName R7
SYMATTR Value 10k
SYMBOL Resistor 1072 384 R0
SYMATTR InstName R8
SYMATTR Value 1k
SYMBOL LED 1072 512 R0
SYMATTR InstName D1
SYMATTR Value NSCW100
SYMBOL Resistor 848 432 R0
SYMATTR InstName R9
SYMATTR Value 10k
SYMBOL schottky 128 16 R270
WINDOW 0 32 32 VTop 2
WINDOW 3 0 32 VBottom 2
SYMATTR InstName D2
SYMATTR Value 1N5817
SYMATTR Description Diode
SYMATTR Type diode
TEXT 32 664 Left 2 !.tran 10s
